*SPEF "ieee 1481-1999"
*DESIGN "user_proj_example"
*DATE "11:11:11 Fri 11 11, 1111"
*VENDOR "OpenRCX"
*PROGRAM "Parallel Extraction"
*VERSION "1.0"
*DESIGN_FLOW "NAME_SCOPE LOCAL" "PIN_CAP NONE"
*DIVIDER /
*DELIMITER :
*BUS_DELIMITER []
*T_UNIT 1 NS
*C_UNIT 1 PF
*R_UNIT 1 OHM
*L_UNIT 1 HENRY

*NAME_MAP
*1 io_in[0]
*2 io_in[10]
*3 io_in[11]
*4 io_in[12]
*5 io_in[13]
*6 io_in[14]
*7 io_in[15]
*8 io_in[16]
*9 io_in[17]
*10 io_in[18]
*11 io_in[19]
*12 io_in[1]
*13 io_in[20]
*14 io_in[21]
*15 io_in[22]
*16 io_in[23]
*17 io_in[24]
*18 io_in[25]
*19 io_in[26]
*20 io_in[27]
*21 io_in[28]
*22 io_in[29]
*23 io_in[2]
*24 io_in[30]
*25 io_in[31]
*26 io_in[32]
*27 io_in[33]
*28 io_in[34]
*29 io_in[35]
*30 io_in[36]
*31 io_in[37]
*32 io_in[3]
*33 io_in[4]
*34 io_in[5]
*35 io_in[6]
*36 io_in[7]
*37 io_in[8]
*38 io_in[9]
*39 net10
*40 net77
*41 net78
*42 net20
*43 net21
*44 net22
*45 net23
*46 net24
*47 net25
*48 net26
*49 net27
*50 net11
*51 net28
*52 net29
*53 net30
*54 net31
*55 net32
*56 net33
*57 net34
*58 net35
*59 net36
*60 net37
*61 net12
*62 net38
*63 net39
*64 net40
*65 net41
*66 net42
*67 net43
*68 net44
*69 net45
*70 net13
*71 net14
*72 net15
*73 net16
*74 net17
*75 net18
*76 net19
*77 net46
*78 net56
*79 net57
*80 io_out[12]
*81 io_out[13]
*82 io_out[14]
*83 io_out[15]
*84 io_out[16]
*85 io_out[17]
*86 io_out[18]
*87 net58
*88 net47
*89 net59
*90 net60
*91 net61
*92 net62
*93 net63
*94 net64
*95 net65
*96 net66
*97 net67
*98 net68
*99 net48
*100 net69
*101 net70
*102 net71
*103 net72
*104 net73
*105 net74
*106 net75
*107 net76
*108 net49
*109 net50
*110 net51
*111 net52
*112 net53
*113 net54
*114 net55
*117 _000_
*118 _001_
*119 _002_
*120 _003_
*121 _004_
*122 _005_
*123 _006_
*124 _007_
*125 _008_
*126 _009_
*127 _010_
*128 _011_
*129 _012_
*130 _013_
*131 _014_
*132 _015_
*133 _016_
*134 _017_
*135 _018_
*136 _019_
*137 _020_
*138 _021_
*139 c0\.out\[0\]
*140 c0\.out\[1\]
*141 c0\.out\[2\]
*142 net1
*143 net2
*144 net3
*145 net4
*146 net5
*147 net6
*148 net7
*149 net8
*150 net9
*151 ANTENNA__022__B
*152 ANTENNA__024__C_N
*153 ANTENNA__027__C_N
*154 ANTENNA__029__C
*155 ANTENNA__033__B1_N
*156 ANTENNA__044__CLK
*157 ANTENNA__045__CLK
*158 ANTENNA__046__CLK
*159 ANTENNA__047__CLK
*160 ANTENNA__048__CLK
*161 ANTENNA__049__CLK
*162 ANTENNA__050__CLK
*163 ANTENNA__051__CLK
*164 ANTENNA__052__CLK
*165 ANTENNA__053__CLK
*166 ANTENNA_input1_A
*167 ANTENNA_input2_A
*168 FILLER_0_1005
*169 FILLER_0_1009
*170 FILLER_0_1021
*171 FILLER_0_1033
*172 FILLER_0_1037
*173 FILLER_0_1049
*174 FILLER_0_1061
*175 FILLER_0_1065
*176 FILLER_0_1077
*177 FILLER_0_1089
*178 FILLER_0_109
*179 FILLER_0_1093
*180 FILLER_0_1105
*181 FILLER_0_1117
*182 FILLER_0_1121
*183 FILLER_0_113
*184 FILLER_0_1133
*185 FILLER_0_1145
*186 FILLER_0_1149
*187 FILLER_0_1161
*188 FILLER_0_1173
*189 FILLER_0_1177
*190 FILLER_0_1189
*191 FILLER_0_1201
*192 FILLER_0_1205
*193 FILLER_0_1217
*194 FILLER_0_1229
*195 FILLER_0_1233
*196 FILLER_0_1245
*197 FILLER_0_125
*198 FILLER_0_1257
*199 FILLER_0_1261
*200 FILLER_0_1273
*201 FILLER_0_1285
*202 FILLER_0_1289
*203 FILLER_0_1301
*204 FILLER_0_1313
*205 FILLER_0_1317
*206 FILLER_0_1329
*207 FILLER_0_1341
*208 FILLER_0_1345
*209 FILLER_0_1357
*210 FILLER_0_1369
*211 FILLER_0_137
*212 FILLER_0_1373
*213 FILLER_0_1385
*214 FILLER_0_1397
*215 FILLER_0_1401
*216 FILLER_0_141
*217 FILLER_0_1413
*218 FILLER_0_1425
*219 FILLER_0_1429
*220 FILLER_0_1441
*221 FILLER_0_1453
*222 FILLER_0_1457
*223 FILLER_0_1469
*224 FILLER_0_1481
*225 FILLER_0_1485
*226 FILLER_0_1497
*227 FILLER_0_15
*228 FILLER_0_1509
*229 FILLER_0_1513
*230 FILLER_0_1525
*231 FILLER_0_153
*232 FILLER_0_1537
*233 FILLER_0_1541
*234 FILLER_0_1553
*235 FILLER_0_1565
*236 FILLER_0_1569
*237 FILLER_0_1581
*238 FILLER_0_1593
*239 FILLER_0_1597
*240 FILLER_0_1609
*241 FILLER_0_1621
*242 FILLER_0_1625
*243 FILLER_0_1637
*244 FILLER_0_1649
*245 FILLER_0_165
*246 FILLER_0_1653
*247 FILLER_0_1665
*248 FILLER_0_1677
*249 FILLER_0_1681
*250 FILLER_0_169
*251 FILLER_0_1693
*252 FILLER_0_1705
*253 FILLER_0_1709
*254 FILLER_0_1721
*255 FILLER_0_1733
*256 FILLER_0_1737
*257 FILLER_0_1749
*258 FILLER_0_1761
*259 FILLER_0_1765
*260 FILLER_0_1777
*261 FILLER_0_1789
*262 FILLER_0_1793
*263 FILLER_0_1805
*264 FILLER_0_181
*265 FILLER_0_1817
*266 FILLER_0_1821
*267 FILLER_0_1833
*268 FILLER_0_1845
*269 FILLER_0_1849
*270 FILLER_0_1861
*271 FILLER_0_1873
*272 FILLER_0_1877
*273 FILLER_0_1889
*274 FILLER_0_1901
*275 FILLER_0_1905
*276 FILLER_0_1917
*277 FILLER_0_193
*278 FILLER_0_197
*279 FILLER_0_209
*280 FILLER_0_221
*281 FILLER_0_225
*282 FILLER_0_237
*283 FILLER_0_249
*284 FILLER_0_253
*285 FILLER_0_265
*286 FILLER_0_27
*287 FILLER_0_277
*288 FILLER_0_281
*289 FILLER_0_29
*290 FILLER_0_293
*291 FILLER_0_3
*292 FILLER_0_305
*293 FILLER_0_309
*294 FILLER_0_321
*295 FILLER_0_333
*296 FILLER_0_337
*297 FILLER_0_349
*298 FILLER_0_361
*299 FILLER_0_365
*300 FILLER_0_377
*301 FILLER_0_389
*302 FILLER_0_393
*303 FILLER_0_405
*304 FILLER_0_41
*305 FILLER_0_417
*306 FILLER_0_421
*307 FILLER_0_433
*308 FILLER_0_445
*309 FILLER_0_449
*310 FILLER_0_461
*311 FILLER_0_473
*312 FILLER_0_477
*313 FILLER_0_489
*314 FILLER_0_501
*315 FILLER_0_505
*316 FILLER_0_517
*317 FILLER_0_529
*318 FILLER_0_53
*319 FILLER_0_533
*320 FILLER_0_545
*321 FILLER_0_557
*322 FILLER_0_561
*323 FILLER_0_57
*324 FILLER_0_573
*325 FILLER_0_585
*326 FILLER_0_589
*327 FILLER_0_601
*328 FILLER_0_613
*329 FILLER_0_617
*330 FILLER_0_629
*331 FILLER_0_641
*332 FILLER_0_645
*333 FILLER_0_657
*334 FILLER_0_669
*335 FILLER_0_673
*336 FILLER_0_685
*337 FILLER_0_69
*338 FILLER_0_697
*339 FILLER_0_701
*340 FILLER_0_713
*341 FILLER_0_725
*342 FILLER_0_729
*343 FILLER_0_741
*344 FILLER_0_753
*345 FILLER_0_757
*346 FILLER_0_769
*347 FILLER_0_781
*348 FILLER_0_785
*349 FILLER_0_797
*350 FILLER_0_809
*351 FILLER_0_81
*352 FILLER_0_813
*353 FILLER_0_825
*354 FILLER_0_837
*355 FILLER_0_841
*356 FILLER_0_85
*357 FILLER_0_853
*358 FILLER_0_865
*359 FILLER_0_869
*360 FILLER_0_881
*361 FILLER_0_893
*362 FILLER_0_897
*363 FILLER_0_909
*364 FILLER_0_921
*365 FILLER_0_925
*366 FILLER_0_937
*367 FILLER_0_949
*368 FILLER_0_953
*369 FILLER_0_965
*370 FILLER_0_97
*371 FILLER_0_977
*372 FILLER_0_981
*373 FILLER_0_993
*374 FILLER_100_1005
*375 FILLER_100_1017
*376 FILLER_100_1029
*377 FILLER_100_1035
*378 FILLER_100_1037
*379 FILLER_100_1049
*380 FILLER_100_1061
*381 FILLER_100_1073
*382 FILLER_100_1085
*383 FILLER_100_109
*384 FILLER_100_1091
*385 FILLER_100_1093
*386 FILLER_100_1105
*387 FILLER_100_1117
*388 FILLER_100_1129
*389 FILLER_100_1141
*390 FILLER_100_1147
*391 FILLER_100_1149
*392 FILLER_100_1161
*393 FILLER_100_1173
*394 FILLER_100_1185
*395 FILLER_100_1197
*396 FILLER_100_1203
*397 FILLER_100_1205
*398 FILLER_100_121
*399 FILLER_100_1217
*400 FILLER_100_1229
*401 FILLER_100_1241
*402 FILLER_100_1253
*403 FILLER_100_1259
*404 FILLER_100_1261
*405 FILLER_100_1273
*406 FILLER_100_1285
*407 FILLER_100_1297
*408 FILLER_100_1309
*409 FILLER_100_1315
*410 FILLER_100_1317
*411 FILLER_100_1329
*412 FILLER_100_133
*413 FILLER_100_1341
*414 FILLER_100_1353
*415 FILLER_100_1365
*416 FILLER_100_1371
*417 FILLER_100_1373
*418 FILLER_100_1385
*419 FILLER_100_139
*420 FILLER_100_1397
*421 FILLER_100_1409
*422 FILLER_100_141
*423 FILLER_100_1421
*424 FILLER_100_1427
*425 FILLER_100_1429
*426 FILLER_100_1441
*427 FILLER_100_1453
*428 FILLER_100_1465
*429 FILLER_100_1477
*430 FILLER_100_1483
*431 FILLER_100_1485
*432 FILLER_100_1497
*433 FILLER_100_15
*434 FILLER_100_1509
*435 FILLER_100_1521
*436 FILLER_100_153
*437 FILLER_100_1533
*438 FILLER_100_1539
*439 FILLER_100_1541
*440 FILLER_100_1553
*441 FILLER_100_1565
*442 FILLER_100_1577
*443 FILLER_100_1589
*444 FILLER_100_1595
*445 FILLER_100_1597
*446 FILLER_100_1609
*447 FILLER_100_1621
*448 FILLER_100_1633
*449 FILLER_100_1645
*450 FILLER_100_165
*451 FILLER_100_1651
*452 FILLER_100_1653
*453 FILLER_100_1665
*454 FILLER_100_1677
*455 FILLER_100_1689
*456 FILLER_100_1701
*457 FILLER_100_1707
*458 FILLER_100_1709
*459 FILLER_100_1721
*460 FILLER_100_1733
*461 FILLER_100_1745
*462 FILLER_100_1757
*463 FILLER_100_1763
*464 FILLER_100_1765
*465 FILLER_100_177
*466 FILLER_100_1777
*467 FILLER_100_1789
*468 FILLER_100_1801
*469 FILLER_100_1813
*470 FILLER_100_1819
*471 FILLER_100_1821
*472 FILLER_100_1833
*473 FILLER_100_1845
*474 FILLER_100_1857
*475 FILLER_100_1869
*476 FILLER_100_1875
*477 FILLER_100_1877
*478 FILLER_100_1889
*479 FILLER_100_189
*480 FILLER_100_1901
*481 FILLER_100_1913
*482 FILLER_100_1925
*483 FILLER_100_195
*484 FILLER_100_197
*485 FILLER_100_209
*486 FILLER_100_221
*487 FILLER_100_233
*488 FILLER_100_245
*489 FILLER_100_251
*490 FILLER_100_253
*491 FILLER_100_265
*492 FILLER_100_27
*493 FILLER_100_277
*494 FILLER_100_289
*495 FILLER_100_29
*496 FILLER_100_3
*497 FILLER_100_301
*498 FILLER_100_307
*499 FILLER_100_309
*500 FILLER_100_321
*501 FILLER_100_333
*502 FILLER_100_345
*503 FILLER_100_357
*504 FILLER_100_363
*505 FILLER_100_365
*506 FILLER_100_377
*507 FILLER_100_389
*508 FILLER_100_401
*509 FILLER_100_41
*510 FILLER_100_413
*511 FILLER_100_419
*512 FILLER_100_421
*513 FILLER_100_433
*514 FILLER_100_445
*515 FILLER_100_457
*516 FILLER_100_469
*517 FILLER_100_475
*518 FILLER_100_477
*519 FILLER_100_489
*520 FILLER_100_501
*521 FILLER_100_513
*522 FILLER_100_525
*523 FILLER_100_53
*524 FILLER_100_531
*525 FILLER_100_533
*526 FILLER_100_545
*527 FILLER_100_557
*528 FILLER_100_569
*529 FILLER_100_581
*530 FILLER_100_587
*531 FILLER_100_589
*532 FILLER_100_601
*533 FILLER_100_613
*534 FILLER_100_625
*535 FILLER_100_637
*536 FILLER_100_643
*537 FILLER_100_645
*538 FILLER_100_65
*539 FILLER_100_657
*540 FILLER_100_669
*541 FILLER_100_681
*542 FILLER_100_693
*543 FILLER_100_699
*544 FILLER_100_701
*545 FILLER_100_713
*546 FILLER_100_725
*547 FILLER_100_737
*548 FILLER_100_749
*549 FILLER_100_755
*550 FILLER_100_757
*551 FILLER_100_769
*552 FILLER_100_77
*553 FILLER_100_781
*554 FILLER_100_793
*555 FILLER_100_805
*556 FILLER_100_811
*557 FILLER_100_813
*558 FILLER_100_825
*559 FILLER_100_83
*560 FILLER_100_837
*561 FILLER_100_849
*562 FILLER_100_85
*563 FILLER_100_861
*564 FILLER_100_867
*565 FILLER_100_869
*566 FILLER_100_881
*567 FILLER_100_893
*568 FILLER_100_905
*569 FILLER_100_917
*570 FILLER_100_923
*571 FILLER_100_925
*572 FILLER_100_937
*573 FILLER_100_949
*574 FILLER_100_961
*575 FILLER_100_97
*576 FILLER_100_973
*577 FILLER_100_979
*578 FILLER_100_981
*579 FILLER_100_993
*580 FILLER_101_1001
*581 FILLER_101_1007
*582 FILLER_101_1009
*583 FILLER_101_1021
*584 FILLER_101_1033
*585 FILLER_101_1045
*586 FILLER_101_105
*587 FILLER_101_1057
*588 FILLER_101_1063
*589 FILLER_101_1065
*590 FILLER_101_1077
*591 FILLER_101_1089
*592 FILLER_101_1101
*593 FILLER_101_111
*594 FILLER_101_1113
*595 FILLER_101_1119
*596 FILLER_101_1121
*597 FILLER_101_113
*598 FILLER_101_1133
*599 FILLER_101_1145
*600 FILLER_101_1157
*601 FILLER_101_1169
*602 FILLER_101_1175
*603 FILLER_101_1177
*604 FILLER_101_1189
*605 FILLER_101_1201
*606 FILLER_101_1213
*607 FILLER_101_1225
*608 FILLER_101_1231
*609 FILLER_101_1233
*610 FILLER_101_1245
*611 FILLER_101_125
*612 FILLER_101_1257
*613 FILLER_101_1269
*614 FILLER_101_1281
*615 FILLER_101_1287
*616 FILLER_101_1289
*617 FILLER_101_1301
*618 FILLER_101_1313
*619 FILLER_101_1325
*620 FILLER_101_1337
*621 FILLER_101_1343
*622 FILLER_101_1345
*623 FILLER_101_1357
*624 FILLER_101_1369
*625 FILLER_101_137
*626 FILLER_101_1381
*627 FILLER_101_1393
*628 FILLER_101_1399
*629 FILLER_101_1401
*630 FILLER_101_1413
*631 FILLER_101_1425
*632 FILLER_101_1437
*633 FILLER_101_1449
*634 FILLER_101_1455
*635 FILLER_101_1457
*636 FILLER_101_1469
*637 FILLER_101_1481
*638 FILLER_101_149
*639 FILLER_101_1493
*640 FILLER_101_15
*641 FILLER_101_1505
*642 FILLER_101_1511
*643 FILLER_101_1513
*644 FILLER_101_1525
*645 FILLER_101_1537
*646 FILLER_101_1549
*647 FILLER_101_1561
*648 FILLER_101_1567
*649 FILLER_101_1569
*650 FILLER_101_1581
*651 FILLER_101_1593
*652 FILLER_101_1605
*653 FILLER_101_161
*654 FILLER_101_1617
*655 FILLER_101_1623
*656 FILLER_101_1625
*657 FILLER_101_1637
*658 FILLER_101_1649
*659 FILLER_101_1661
*660 FILLER_101_167
*661 FILLER_101_1673
*662 FILLER_101_1679
*663 FILLER_101_1681
*664 FILLER_101_169
*665 FILLER_101_1693
*666 FILLER_101_1705
*667 FILLER_101_1717
*668 FILLER_101_1729
*669 FILLER_101_1735
*670 FILLER_101_1737
*671 FILLER_101_1749
*672 FILLER_101_1761
*673 FILLER_101_1773
*674 FILLER_101_1785
*675 FILLER_101_1791
*676 FILLER_101_1793
*677 FILLER_101_1805
*678 FILLER_101_181
*679 FILLER_101_1817
*680 FILLER_101_1829
*681 FILLER_101_1841
*682 FILLER_101_1847
*683 FILLER_101_1849
*684 FILLER_101_1861
*685 FILLER_101_1873
*686 FILLER_101_1885
*687 FILLER_101_1897
*688 FILLER_101_1903
*689 FILLER_101_1905
*690 FILLER_101_1917
*691 FILLER_101_193
*692 FILLER_101_205
*693 FILLER_101_217
*694 FILLER_101_223
*695 FILLER_101_225
*696 FILLER_101_237
*697 FILLER_101_249
*698 FILLER_101_261
*699 FILLER_101_27
*700 FILLER_101_273
*701 FILLER_101_279
*702 FILLER_101_281
*703 FILLER_101_293
*704 FILLER_101_3
*705 FILLER_101_305
*706 FILLER_101_317
*707 FILLER_101_329
*708 FILLER_101_335
*709 FILLER_101_337
*710 FILLER_101_349
*711 FILLER_101_361
*712 FILLER_101_373
*713 FILLER_101_385
*714 FILLER_101_39
*715 FILLER_101_391
*716 FILLER_101_393
*717 FILLER_101_405
*718 FILLER_101_417
*719 FILLER_101_429
*720 FILLER_101_441
*721 FILLER_101_447
*722 FILLER_101_449
*723 FILLER_101_461
*724 FILLER_101_473
*725 FILLER_101_485
*726 FILLER_101_497
*727 FILLER_101_503
*728 FILLER_101_505
*729 FILLER_101_51
*730 FILLER_101_517
*731 FILLER_101_529
*732 FILLER_101_541
*733 FILLER_101_55
*734 FILLER_101_553
*735 FILLER_101_559
*736 FILLER_101_561
*737 FILLER_101_57
*738 FILLER_101_573
*739 FILLER_101_585
*740 FILLER_101_597
*741 FILLER_101_609
*742 FILLER_101_615
*743 FILLER_101_617
*744 FILLER_101_629
*745 FILLER_101_641
*746 FILLER_101_653
*747 FILLER_101_665
*748 FILLER_101_671
*749 FILLER_101_673
*750 FILLER_101_685
*751 FILLER_101_69
*752 FILLER_101_697
*753 FILLER_101_709
*754 FILLER_101_721
*755 FILLER_101_727
*756 FILLER_101_729
*757 FILLER_101_741
*758 FILLER_101_753
*759 FILLER_101_765
*760 FILLER_101_777
*761 FILLER_101_783
*762 FILLER_101_785
*763 FILLER_101_797
*764 FILLER_101_809
*765 FILLER_101_81
*766 FILLER_101_821
*767 FILLER_101_833
*768 FILLER_101_839
*769 FILLER_101_841
*770 FILLER_101_853
*771 FILLER_101_865
*772 FILLER_101_877
*773 FILLER_101_889
*774 FILLER_101_895
*775 FILLER_101_897
*776 FILLER_101_909
*777 FILLER_101_921
*778 FILLER_101_93
*779 FILLER_101_933
*780 FILLER_101_945
*781 FILLER_101_951
*782 FILLER_101_953
*783 FILLER_101_965
*784 FILLER_101_977
*785 FILLER_101_989
*786 FILLER_102_1005
*787 FILLER_102_1017
*788 FILLER_102_1029
*789 FILLER_102_1035
*790 FILLER_102_1037
*791 FILLER_102_1049
*792 FILLER_102_1061
*793 FILLER_102_1073
*794 FILLER_102_1085
*795 FILLER_102_109
*796 FILLER_102_1091
*797 FILLER_102_1093
*798 FILLER_102_1105
*799 FILLER_102_1117
*800 FILLER_102_1129
*801 FILLER_102_1141
*802 FILLER_102_1147
*803 FILLER_102_1149
*804 FILLER_102_1161
*805 FILLER_102_1173
*806 FILLER_102_1185
*807 FILLER_102_1197
*808 FILLER_102_1203
*809 FILLER_102_1205
*810 FILLER_102_121
*811 FILLER_102_1217
*812 FILLER_102_1229
*813 FILLER_102_1241
*814 FILLER_102_1253
*815 FILLER_102_1259
*816 FILLER_102_1261
*817 FILLER_102_1273
*818 FILLER_102_1285
*819 FILLER_102_1297
*820 FILLER_102_1309
*821 FILLER_102_1315
*822 FILLER_102_1317
*823 FILLER_102_1329
*824 FILLER_102_133
*825 FILLER_102_1341
*826 FILLER_102_1353
*827 FILLER_102_1365
*828 FILLER_102_1371
*829 FILLER_102_1373
*830 FILLER_102_1385
*831 FILLER_102_139
*832 FILLER_102_1397
*833 FILLER_102_1409
*834 FILLER_102_141
*835 FILLER_102_1421
*836 FILLER_102_1427
*837 FILLER_102_1429
*838 FILLER_102_1441
*839 FILLER_102_1453
*840 FILLER_102_1465
*841 FILLER_102_1477
*842 FILLER_102_1483
*843 FILLER_102_1485
*844 FILLER_102_1497
*845 FILLER_102_15
*846 FILLER_102_1509
*847 FILLER_102_1521
*848 FILLER_102_153
*849 FILLER_102_1533
*850 FILLER_102_1539
*851 FILLER_102_1541
*852 FILLER_102_1553
*853 FILLER_102_1565
*854 FILLER_102_1577
*855 FILLER_102_1589
*856 FILLER_102_1595
*857 FILLER_102_1597
*858 FILLER_102_1609
*859 FILLER_102_1621
*860 FILLER_102_1633
*861 FILLER_102_1645
*862 FILLER_102_165
*863 FILLER_102_1651
*864 FILLER_102_1653
*865 FILLER_102_1665
*866 FILLER_102_1677
*867 FILLER_102_1689
*868 FILLER_102_1701
*869 FILLER_102_1707
*870 FILLER_102_1709
*871 FILLER_102_1721
*872 FILLER_102_1733
*873 FILLER_102_1745
*874 FILLER_102_1757
*875 FILLER_102_1763
*876 FILLER_102_1765
*877 FILLER_102_177
*878 FILLER_102_1777
*879 FILLER_102_1789
*880 FILLER_102_1801
*881 FILLER_102_1813
*882 FILLER_102_1819
*883 FILLER_102_1821
*884 FILLER_102_1833
*885 FILLER_102_1845
*886 FILLER_102_1857
*887 FILLER_102_1869
*888 FILLER_102_1875
*889 FILLER_102_1877
*890 FILLER_102_1889
*891 FILLER_102_189
*892 FILLER_102_1901
*893 FILLER_102_1913
*894 FILLER_102_1925
*895 FILLER_102_195
*896 FILLER_102_197
*897 FILLER_102_209
*898 FILLER_102_221
*899 FILLER_102_233
*900 FILLER_102_245
*901 FILLER_102_251
*902 FILLER_102_253
*903 FILLER_102_265
*904 FILLER_102_27
*905 FILLER_102_277
*906 FILLER_102_289
*907 FILLER_102_29
*908 FILLER_102_3
*909 FILLER_102_301
*910 FILLER_102_307
*911 FILLER_102_309
*912 FILLER_102_321
*913 FILLER_102_333
*914 FILLER_102_345
*915 FILLER_102_357
*916 FILLER_102_363
*917 FILLER_102_365
*918 FILLER_102_377
*919 FILLER_102_389
*920 FILLER_102_401
*921 FILLER_102_41
*922 FILLER_102_413
*923 FILLER_102_419
*924 FILLER_102_421
*925 FILLER_102_433
*926 FILLER_102_445
*927 FILLER_102_457
*928 FILLER_102_469
*929 FILLER_102_475
*930 FILLER_102_477
*931 FILLER_102_489
*932 FILLER_102_501
*933 FILLER_102_513
*934 FILLER_102_525
*935 FILLER_102_53
*936 FILLER_102_531
*937 FILLER_102_533
*938 FILLER_102_545
*939 FILLER_102_557
*940 FILLER_102_569
*941 FILLER_102_581
*942 FILLER_102_587
*943 FILLER_102_589
*944 FILLER_102_601
*945 FILLER_102_613
*946 FILLER_102_625
*947 FILLER_102_637
*948 FILLER_102_643
*949 FILLER_102_645
*950 FILLER_102_65
*951 FILLER_102_657
*952 FILLER_102_669
*953 FILLER_102_681
*954 FILLER_102_693
*955 FILLER_102_699
*956 FILLER_102_701
*957 FILLER_102_713
*958 FILLER_102_725
*959 FILLER_102_737
*960 FILLER_102_749
*961 FILLER_102_755
*962 FILLER_102_757
*963 FILLER_102_769
*964 FILLER_102_77
*965 FILLER_102_781
*966 FILLER_102_793
*967 FILLER_102_805
*968 FILLER_102_811
*969 FILLER_102_813
*970 FILLER_102_825
*971 FILLER_102_83
*972 FILLER_102_837
*973 FILLER_102_849
*974 FILLER_102_85
*975 FILLER_102_861
*976 FILLER_102_867
*977 FILLER_102_869
*978 FILLER_102_881
*979 FILLER_102_893
*980 FILLER_102_905
*981 FILLER_102_917
*982 FILLER_102_923
*983 FILLER_102_925
*984 FILLER_102_937
*985 FILLER_102_949
*986 FILLER_102_961
*987 FILLER_102_97
*988 FILLER_102_973
*989 FILLER_102_979
*990 FILLER_102_981
*991 FILLER_102_993
*992 FILLER_103_1001
*993 FILLER_103_1007
*994 FILLER_103_1009
*995 FILLER_103_1021
*996 FILLER_103_1033
*997 FILLER_103_1045
*998 FILLER_103_105
*999 FILLER_103_1057
*1000 FILLER_103_1063
*1001 FILLER_103_1065
*1002 FILLER_103_1077
*1003 FILLER_103_1089
*1004 FILLER_103_1101
*1005 FILLER_103_111
*1006 FILLER_103_1113
*1007 FILLER_103_1119
*1008 FILLER_103_1121
*1009 FILLER_103_113
*1010 FILLER_103_1133
*1011 FILLER_103_1145
*1012 FILLER_103_1157
*1013 FILLER_103_1169
*1014 FILLER_103_1175
*1015 FILLER_103_1177
*1016 FILLER_103_1189
*1017 FILLER_103_1201
*1018 FILLER_103_1213
*1019 FILLER_103_1225
*1020 FILLER_103_1231
*1021 FILLER_103_1233
*1022 FILLER_103_1245
*1023 FILLER_103_125
*1024 FILLER_103_1257
*1025 FILLER_103_1269
*1026 FILLER_103_1281
*1027 FILLER_103_1287
*1028 FILLER_103_1289
*1029 FILLER_103_1301
*1030 FILLER_103_1313
*1031 FILLER_103_1325
*1032 FILLER_103_1337
*1033 FILLER_103_1343
*1034 FILLER_103_1345
*1035 FILLER_103_1357
*1036 FILLER_103_1369
*1037 FILLER_103_137
*1038 FILLER_103_1381
*1039 FILLER_103_1393
*1040 FILLER_103_1399
*1041 FILLER_103_1401
*1042 FILLER_103_1413
*1043 FILLER_103_1425
*1044 FILLER_103_1437
*1045 FILLER_103_1449
*1046 FILLER_103_1455
*1047 FILLER_103_1457
*1048 FILLER_103_1469
*1049 FILLER_103_1481
*1050 FILLER_103_149
*1051 FILLER_103_1493
*1052 FILLER_103_15
*1053 FILLER_103_1505
*1054 FILLER_103_1511
*1055 FILLER_103_1513
*1056 FILLER_103_1525
*1057 FILLER_103_1537
*1058 FILLER_103_1549
*1059 FILLER_103_1561
*1060 FILLER_103_1567
*1061 FILLER_103_1569
*1062 FILLER_103_1581
*1063 FILLER_103_1593
*1064 FILLER_103_1605
*1065 FILLER_103_161
*1066 FILLER_103_1617
*1067 FILLER_103_1623
*1068 FILLER_103_1625
*1069 FILLER_103_1637
*1070 FILLER_103_1649
*1071 FILLER_103_1661
*1072 FILLER_103_167
*1073 FILLER_103_1673
*1074 FILLER_103_1679
*1075 FILLER_103_1681
*1076 FILLER_103_169
*1077 FILLER_103_1693
*1078 FILLER_103_1705
*1079 FILLER_103_1717
*1080 FILLER_103_1729
*1081 FILLER_103_1735
*1082 FILLER_103_1737
*1083 FILLER_103_1749
*1084 FILLER_103_1761
*1085 FILLER_103_1773
*1086 FILLER_103_1785
*1087 FILLER_103_1791
*1088 FILLER_103_1793
*1089 FILLER_103_1805
*1090 FILLER_103_181
*1091 FILLER_103_1817
*1092 FILLER_103_1829
*1093 FILLER_103_1841
*1094 FILLER_103_1847
*1095 FILLER_103_1849
*1096 FILLER_103_1861
*1097 FILLER_103_1873
*1098 FILLER_103_1885
*1099 FILLER_103_1897
*1100 FILLER_103_1903
*1101 FILLER_103_1905
*1102 FILLER_103_1917
*1103 FILLER_103_193
*1104 FILLER_103_205
*1105 FILLER_103_217
*1106 FILLER_103_223
*1107 FILLER_103_225
*1108 FILLER_103_237
*1109 FILLER_103_249
*1110 FILLER_103_261
*1111 FILLER_103_27
*1112 FILLER_103_273
*1113 FILLER_103_279
*1114 FILLER_103_281
*1115 FILLER_103_293
*1116 FILLER_103_3
*1117 FILLER_103_305
*1118 FILLER_103_317
*1119 FILLER_103_329
*1120 FILLER_103_335
*1121 FILLER_103_337
*1122 FILLER_103_349
*1123 FILLER_103_361
*1124 FILLER_103_373
*1125 FILLER_103_385
*1126 FILLER_103_39
*1127 FILLER_103_391
*1128 FILLER_103_393
*1129 FILLER_103_405
*1130 FILLER_103_417
*1131 FILLER_103_429
*1132 FILLER_103_441
*1133 FILLER_103_447
*1134 FILLER_103_449
*1135 FILLER_103_461
*1136 FILLER_103_473
*1137 FILLER_103_485
*1138 FILLER_103_497
*1139 FILLER_103_503
*1140 FILLER_103_505
*1141 FILLER_103_51
*1142 FILLER_103_517
*1143 FILLER_103_529
*1144 FILLER_103_541
*1145 FILLER_103_55
*1146 FILLER_103_553
*1147 FILLER_103_559
*1148 FILLER_103_561
*1149 FILLER_103_57
*1150 FILLER_103_573
*1151 FILLER_103_585
*1152 FILLER_103_597
*1153 FILLER_103_609
*1154 FILLER_103_615
*1155 FILLER_103_617
*1156 FILLER_103_629
*1157 FILLER_103_641
*1158 FILLER_103_653
*1159 FILLER_103_665
*1160 FILLER_103_671
*1161 FILLER_103_673
*1162 FILLER_103_685
*1163 FILLER_103_69
*1164 FILLER_103_697
*1165 FILLER_103_709
*1166 FILLER_103_721
*1167 FILLER_103_727
*1168 FILLER_103_729
*1169 FILLER_103_741
*1170 FILLER_103_753
*1171 FILLER_103_765
*1172 FILLER_103_777
*1173 FILLER_103_783
*1174 FILLER_103_785
*1175 FILLER_103_797
*1176 FILLER_103_809
*1177 FILLER_103_81
*1178 FILLER_103_821
*1179 FILLER_103_833
*1180 FILLER_103_839
*1181 FILLER_103_841
*1182 FILLER_103_853
*1183 FILLER_103_865
*1184 FILLER_103_877
*1185 FILLER_103_889
*1186 FILLER_103_895
*1187 FILLER_103_897
*1188 FILLER_103_909
*1189 FILLER_103_921
*1190 FILLER_103_93
*1191 FILLER_103_933
*1192 FILLER_103_945
*1193 FILLER_103_951
*1194 FILLER_103_953
*1195 FILLER_103_965
*1196 FILLER_103_977
*1197 FILLER_103_989
*1198 FILLER_104_1005
*1199 FILLER_104_1017
*1200 FILLER_104_1029
*1201 FILLER_104_1035
*1202 FILLER_104_1037
*1203 FILLER_104_1049
*1204 FILLER_104_1061
*1205 FILLER_104_1073
*1206 FILLER_104_1085
*1207 FILLER_104_109
*1208 FILLER_104_1091
*1209 FILLER_104_1093
*1210 FILLER_104_1105
*1211 FILLER_104_1117
*1212 FILLER_104_1129
*1213 FILLER_104_1141
*1214 FILLER_104_1147
*1215 FILLER_104_1149
*1216 FILLER_104_1161
*1217 FILLER_104_1173
*1218 FILLER_104_1185
*1219 FILLER_104_1197
*1220 FILLER_104_1203
*1221 FILLER_104_1205
*1222 FILLER_104_121
*1223 FILLER_104_1217
*1224 FILLER_104_1229
*1225 FILLER_104_1241
*1226 FILLER_104_1253
*1227 FILLER_104_1259
*1228 FILLER_104_1261
*1229 FILLER_104_1273
*1230 FILLER_104_1285
*1231 FILLER_104_1297
*1232 FILLER_104_1309
*1233 FILLER_104_1315
*1234 FILLER_104_1317
*1235 FILLER_104_1329
*1236 FILLER_104_133
*1237 FILLER_104_1341
*1238 FILLER_104_1353
*1239 FILLER_104_1365
*1240 FILLER_104_1371
*1241 FILLER_104_1373
*1242 FILLER_104_1385
*1243 FILLER_104_139
*1244 FILLER_104_1397
*1245 FILLER_104_1409
*1246 FILLER_104_141
*1247 FILLER_104_1421
*1248 FILLER_104_1427
*1249 FILLER_104_1429
*1250 FILLER_104_1441
*1251 FILLER_104_1453
*1252 FILLER_104_1465
*1253 FILLER_104_1477
*1254 FILLER_104_1483
*1255 FILLER_104_1485
*1256 FILLER_104_1497
*1257 FILLER_104_15
*1258 FILLER_104_1509
*1259 FILLER_104_1521
*1260 FILLER_104_153
*1261 FILLER_104_1533
*1262 FILLER_104_1539
*1263 FILLER_104_1541
*1264 FILLER_104_1553
*1265 FILLER_104_1565
*1266 FILLER_104_1577
*1267 FILLER_104_1589
*1268 FILLER_104_1595
*1269 FILLER_104_1597
*1270 FILLER_104_1609
*1271 FILLER_104_1621
*1272 FILLER_104_1633
*1273 FILLER_104_1645
*1274 FILLER_104_165
*1275 FILLER_104_1651
*1276 FILLER_104_1653
*1277 FILLER_104_1665
*1278 FILLER_104_1677
*1279 FILLER_104_1689
*1280 FILLER_104_1701
*1281 FILLER_104_1707
*1282 FILLER_104_1709
*1283 FILLER_104_1721
*1284 FILLER_104_1733
*1285 FILLER_104_1745
*1286 FILLER_104_1757
*1287 FILLER_104_1763
*1288 FILLER_104_1765
*1289 FILLER_104_177
*1290 FILLER_104_1777
*1291 FILLER_104_1789
*1292 FILLER_104_1801
*1293 FILLER_104_1813
*1294 FILLER_104_1819
*1295 FILLER_104_1821
*1296 FILLER_104_1833
*1297 FILLER_104_1845
*1298 FILLER_104_1857
*1299 FILLER_104_1869
*1300 FILLER_104_1875
*1301 FILLER_104_1877
*1302 FILLER_104_1889
*1303 FILLER_104_189
*1304 FILLER_104_1901
*1305 FILLER_104_1913
*1306 FILLER_104_1925
*1307 FILLER_104_195
*1308 FILLER_104_197
*1309 FILLER_104_209
*1310 FILLER_104_221
*1311 FILLER_104_233
*1312 FILLER_104_245
*1313 FILLER_104_251
*1314 FILLER_104_253
*1315 FILLER_104_265
*1316 FILLER_104_27
*1317 FILLER_104_277
*1318 FILLER_104_289
*1319 FILLER_104_29
*1320 FILLER_104_3
*1321 FILLER_104_301
*1322 FILLER_104_307
*1323 FILLER_104_309
*1324 FILLER_104_321
*1325 FILLER_104_333
*1326 FILLER_104_345
*1327 FILLER_104_357
*1328 FILLER_104_363
*1329 FILLER_104_365
*1330 FILLER_104_377
*1331 FILLER_104_389
*1332 FILLER_104_401
*1333 FILLER_104_41
*1334 FILLER_104_413
*1335 FILLER_104_419
*1336 FILLER_104_421
*1337 FILLER_104_433
*1338 FILLER_104_445
*1339 FILLER_104_457
*1340 FILLER_104_469
*1341 FILLER_104_475
*1342 FILLER_104_477
*1343 FILLER_104_489
*1344 FILLER_104_501
*1345 FILLER_104_513
*1346 FILLER_104_525
*1347 FILLER_104_53
*1348 FILLER_104_531
*1349 FILLER_104_533
*1350 FILLER_104_545
*1351 FILLER_104_557
*1352 FILLER_104_569
*1353 FILLER_104_581
*1354 FILLER_104_587
*1355 FILLER_104_589
*1356 FILLER_104_601
*1357 FILLER_104_613
*1358 FILLER_104_625
*1359 FILLER_104_637
*1360 FILLER_104_643
*1361 FILLER_104_645
*1362 FILLER_104_65
*1363 FILLER_104_657
*1364 FILLER_104_669
*1365 FILLER_104_681
*1366 FILLER_104_693
*1367 FILLER_104_699
*1368 FILLER_104_701
*1369 FILLER_104_713
*1370 FILLER_104_725
*1371 FILLER_104_737
*1372 FILLER_104_749
*1373 FILLER_104_755
*1374 FILLER_104_757
*1375 FILLER_104_769
*1376 FILLER_104_77
*1377 FILLER_104_781
*1378 FILLER_104_793
*1379 FILLER_104_805
*1380 FILLER_104_811
*1381 FILLER_104_813
*1382 FILLER_104_825
*1383 FILLER_104_83
*1384 FILLER_104_837
*1385 FILLER_104_849
*1386 FILLER_104_85
*1387 FILLER_104_861
*1388 FILLER_104_867
*1389 FILLER_104_869
*1390 FILLER_104_881
*1391 FILLER_104_893
*1392 FILLER_104_905
*1393 FILLER_104_917
*1394 FILLER_104_923
*1395 FILLER_104_925
*1396 FILLER_104_937
*1397 FILLER_104_949
*1398 FILLER_104_961
*1399 FILLER_104_97
*1400 FILLER_104_973
*1401 FILLER_104_979
*1402 FILLER_104_981
*1403 FILLER_104_993
*1404 FILLER_105_1001
*1405 FILLER_105_1007
*1406 FILLER_105_1009
*1407 FILLER_105_1021
*1408 FILLER_105_1033
*1409 FILLER_105_1045
*1410 FILLER_105_105
*1411 FILLER_105_1057
*1412 FILLER_105_1063
*1413 FILLER_105_1065
*1414 FILLER_105_1077
*1415 FILLER_105_1089
*1416 FILLER_105_1101
*1417 FILLER_105_111
*1418 FILLER_105_1113
*1419 FILLER_105_1119
*1420 FILLER_105_1121
*1421 FILLER_105_113
*1422 FILLER_105_1133
*1423 FILLER_105_1145
*1424 FILLER_105_1157
*1425 FILLER_105_1169
*1426 FILLER_105_1175
*1427 FILLER_105_1177
*1428 FILLER_105_1189
*1429 FILLER_105_1201
*1430 FILLER_105_1213
*1431 FILLER_105_1225
*1432 FILLER_105_1231
*1433 FILLER_105_1233
*1434 FILLER_105_1245
*1435 FILLER_105_125
*1436 FILLER_105_1257
*1437 FILLER_105_1269
*1438 FILLER_105_1281
*1439 FILLER_105_1287
*1440 FILLER_105_1289
*1441 FILLER_105_1301
*1442 FILLER_105_1313
*1443 FILLER_105_1325
*1444 FILLER_105_1337
*1445 FILLER_105_1343
*1446 FILLER_105_1345
*1447 FILLER_105_1357
*1448 FILLER_105_1369
*1449 FILLER_105_137
*1450 FILLER_105_1381
*1451 FILLER_105_1393
*1452 FILLER_105_1399
*1453 FILLER_105_1401
*1454 FILLER_105_1413
*1455 FILLER_105_1425
*1456 FILLER_105_1437
*1457 FILLER_105_1449
*1458 FILLER_105_1455
*1459 FILLER_105_1457
*1460 FILLER_105_1469
*1461 FILLER_105_1481
*1462 FILLER_105_149
*1463 FILLER_105_1493
*1464 FILLER_105_15
*1465 FILLER_105_1505
*1466 FILLER_105_1511
*1467 FILLER_105_1513
*1468 FILLER_105_1525
*1469 FILLER_105_1537
*1470 FILLER_105_1549
*1471 FILLER_105_1561
*1472 FILLER_105_1567
*1473 FILLER_105_1569
*1474 FILLER_105_1581
*1475 FILLER_105_1593
*1476 FILLER_105_1605
*1477 FILLER_105_161
*1478 FILLER_105_1617
*1479 FILLER_105_1623
*1480 FILLER_105_1625
*1481 FILLER_105_1637
*1482 FILLER_105_1649
*1483 FILLER_105_1661
*1484 FILLER_105_167
*1485 FILLER_105_1673
*1486 FILLER_105_1679
*1487 FILLER_105_1681
*1488 FILLER_105_169
*1489 FILLER_105_1693
*1490 FILLER_105_1705
*1491 FILLER_105_1717
*1492 FILLER_105_1729
*1493 FILLER_105_1735
*1494 FILLER_105_1737
*1495 FILLER_105_1749
*1496 FILLER_105_1761
*1497 FILLER_105_1773
*1498 FILLER_105_1785
*1499 FILLER_105_1791
*1500 FILLER_105_1793
*1501 FILLER_105_1805
*1502 FILLER_105_181
*1503 FILLER_105_1817
*1504 FILLER_105_1829
*1505 FILLER_105_1841
*1506 FILLER_105_1847
*1507 FILLER_105_1849
*1508 FILLER_105_1861
*1509 FILLER_105_1873
*1510 FILLER_105_1885