*SPEF "ieee 1481-1999"
*DESIGN "user_project_wrapper"
*DATE "11:11:11 Fri 11 11, 1111"
*VENDOR "OpenRCX"
*PROGRAM "Parallel Extraction"
*VERSION "1.0"
*DESIGN_FLOW "NAME_SCOPE LOCAL" "PIN_CAP NONE"
*DIVIDER /
*DELIMITER :
*BUS_DELIMITER []
*T_UNIT 1 NS
*C_UNIT 1 PF
*R_UNIT 1 OHM
*L_UNIT 1 HENRY

*NAME_MAP
*1 analog_io[0]
*2 analog_io[10]
*3 analog_io[11]
*4 analog_io[12]
*5 analog_io[13]
*6 analog_io[14]
*7 analog_io[15]
*8 analog_io[16]
*9 analog_io[17]
*10 analog_io[18]
*11 analog_io[19]
*12 analog_io[1]
*13 analog_io[20]
*14 analog_io[21]
*15 analog_io[22]
*16 analog_io[23]
*17 analog_io[24]
*18 analog_io[25]
*19 analog_io[26]
*20 analog_io[27]
*21 analog_io[2]
*22 analog_io[3]
*23 analog_io[4]
*24 analog_io[5]
*25 analog_io[6]
*26 analog_io[7]
*27 analog_io[8]
*28 analog_io[9]
*29 io_in[0]
*30 io_in[10]
*31 io_in[11]
*32 io_in[12]
*33 io_in[13]
*34 io_in[14]
*35 io_in[15]
*36 io_in[16]
*37 io_in[17]
*38 io_in[18]
*39 io_in[19]
*40 io_in[1]
*41 io_in[20]
*42 io_in[21]
*43 io_in[22]
*44 io_in[23]
*45 io_in[24]
*46 io_in[25]
*47 io_in[26]
*48 io_in[27]
*49 io_in[28]
*50 io_in[29]
*51 io_in[2]
*52 io_in[30]
*53 io_in[31]
*54 io_in[32]
*55 io_in[33]
*56 io_in[34]
*57 io_in[35]
*58 io_in[36]
*59 io_in[37]
*60 io_in[3]
*61 io_in[4]
*62 io_in[5]
*63 io_in[6]
*64 io_in[7]
*65 io_in[8]
*66 io_in[9]
*67 io_oeb[0]
*68 io_oeb[10]
*69 io_oeb[11]
*70 io_oeb[12]
*71 io_oeb[13]
*72 io_oeb[14]
*73 io_oeb[15]
*74 io_oeb[16]
*75 io_oeb[17]
*76 io_oeb[18]
*77 io_oeb[19]
*78 io_oeb[1]
*79 io_oeb[20]
*80 io_oeb[21]
*81 io_oeb[22]
*82 io_oeb[23]
*83 io_oeb[24]
*84 io_oeb[25]
*85 io_oeb[26]
*86 io_oeb[27]
*87 io_oeb[28]
*88 io_oeb[29]
*89 io_oeb[2]
*90 io_oeb[30]
*91 io_oeb[31]
*92 io_oeb[32]
*93 io_oeb[33]
*94 io_oeb[34]
*95 io_oeb[35]
*96 io_oeb[36]
*97 io_oeb[37]
*98 io_oeb[3]
*99 io_oeb[4]
*100 io_oeb[5]
*101 io_oeb[6]
*102 io_oeb[7]
*103 io_oeb[8]
*104 io_oeb[9]
*105 io_out[0]
*106 io_out[10]
*107 io_out[11]
*108 io_out[12]
*109 io_out[13]
*110 io_out[14]
*111 io_out[15]
*112 io_out[16]
*113 io_out[17]
*114 io_out[18]
*115 io_out[19]
*116 io_out[1]
*117 io_out[20]
*118 io_out[21]
*119 io_out[22]
*120 io_out[23]
*121 io_out[24]
*122 io_out[25]
*123 io_out[26]
*124 io_out[27]
*125 io_out[28]
*126 io_out[29]
*127 io_out[2]
*128 io_out[30]
*129 io_out[31]
*130 io_out[32]
*131 io_out[33]
*132 io_out[34]
*133 io_out[35]
*134 io_out[36]
*135 io_out[37]
*136 io_out[3]
*137 io_out[4]
*138 io_out[5]
*139 io_out[6]
*140 io_out[7]
*141 io_out[8]
*142 io_out[9]
*143 la_data_in[0]
*144 la_data_in[100]
*145 la_data_in[101]
*146 la_data_in[102]
*147 la_data_in[103]
*148 la_data_in[104]
*149 la_data_in[105]
*150 la_data_in[106]
*151 la_data_in[107]
*152 la_data_in[108]
*153 la_data_in[109]
*154 la_data_in[10]
*155 la_data_in[110]
*156 la_data_in[111]
*157 la_data_in[112]
*158 la_data_in[113]
*159 la_data_in[114]
*160 la_data_in[115]
*161 la_data_in[116]
*162 la_data_in[117]
*163 la_data_in[118]
*164 la_data_in[119]
*165 la_data_in[11]
*166 la_data_in[120]
*167 la_data_in[121]
*168 la_data_in[122]
*169 la_data_in[123]
*170 la_data_in[124]
*171 la_data_in[125]
*172 la_data_in[126]
*173 la_data_in[127]
*174 la_data_in[12]
*175 la_data_in[13]
*176 la_data_in[14]
*177 la_data_in[15]
*178 la_data_in[16]
*179 la_data_in[17]
*180 la_data_in[18]
*181 la_data_in[19]
*182 la_data_in[1]
*183 la_data_in[20]
*184 la_data_in[21]
*185 la_data_in[22]
*186 la_data_in[23]
*187 la_data_in[24]
*188 la_data_in[25]
*189 la_data_in[26]
*190 la_data_in[27]
*191 la_data_in[28]
*192 la_data_in[29]
*193 la_data_in[2]
*194 la_data_in[30]
*195 la_data_in[31]
*196 la_data_in[32]
*197 la_data_in[33]
*198 la_data_in[34]
*199 la_data_in[35]
*200 la_data_in[36]
*201 la_data_in[37]
*202 la_data_in[38]
*203 la_data_in[39]
*204 la_data_in[3]
*205 la_data_in[40]
*206 la_data_in[41]
*207 la_data_in[42]
*208 la_data_in[43]
*209 la_data_in[44]
*210 la_data_in[45]
*211 la_data_in[46]
*212 la_data_in[47]
*213 la_data_in[48]
*214 la_data_in[49]
*215 la_data_in[4]
*216 la_data_in[50]
*217 la_data_in[51]
*218 la_data_in[52]
*219 la_data_in[53]
*220 la_data_in[54]
*221 la_data_in[55]
*222 la_data_in[56]
*223 la_data_in[57]
*224 la_data_in[58]
*225 la_data_in[59]
*226 la_data_in[5]
*227 la_data_in[60]
*228 la_data_in[61]
*229 la_data_in[62]
*230 la_data_in[63]
*231 la_data_in[64]
*232 la_data_in[65]
*233 la_data_in[66]
*234 la_data_in[67]
*235 la_data_in[68]
*236 la_data_in[69]
*237 la_data_in[6]
*238 la_data_in[70]
*239 la_data_in[71]
*240 la_data_in[72]
*241 la_data_in[73]
*242 la_data_in[74]
*243 la_data_in[75]
*244 la_data_in[76]
*245 la_data_in[77]
*246 la_data_in[78]
*247 la_data_in[79]
*248 la_data_in[7]
*249 la_data_in[80]
*250 la_data_in[81]
*251 la_data_in[82]
*252 la_data_in[83]
*253 la_data_in[84]
*254 la_data_in[85]
*255 la_data_in[86]
*256 la_data_in[87]
*257 la_data_in[88]
*258 la_data_in[89]
*259 la_data_in[8]
*260 la_data_in[90]
*261 la_data_in[91]
*262 la_data_in[92]
*263 la_data_in[93]
*264 la_data_in[94]
*265 la_data_in[95]
*266 la_data_in[96]
*267 la_data_in[97]
*268 la_data_in[98]
*269 la_data_in[99]
*270 la_data_in[9]
*271 la_data_out[0]
*272 la_data_out[100]
*273 la_data_out[101]
*274 la_data_out[102]
*275 la_data_out[103]
*276 la_data_out[104]
*277 la_data_out[105]
*278 la_data_out[106]
*279 la_data_out[107]
*280 la_data_out[108]
*281 la_data_out[109]
*282 la_data_out[10]
*283 la_data_out[110]
*284 la_data_out[111]
*285 la_data_out[112]
*286 la_data_out[113]
*287 la_data_out[114]
*288 la_data_out[115]
*289 la_data_out[116]
*290 la_data_out[117]
*291 la_data_out[118]
*292 la_data_out[119]
*293 la_data_out[11]
*294 la_data_out[120]
*295 la_data_out[121]
*296 la_data_out[122]
*297 la_data_out[123]
*298 la_data_out[124]
*299 la_data_out[125]
*300 la_data_out[126]
*301 la_data_out[127]
*302 la_data_out[12]
*303 la_data_out[13]
*304 la_data_out[14]
*305 la_data_out[15]
*306 la_data_out[16]
*307 la_data_out[17]
*308 la_data_out[18]
*309 la_data_out[19]
*310 la_data_out[1]
*311 la_data_out[20]
*312 la_data_out[21]
*313 la_data_out[22]
*314 la_data_out[23]
*315 la_data_out[24]
*316 la_data_out[25]
*317 la_data_out[26]
*318 la_data_out[27]
*319 la_data_out[28]
*320 la_data_out[29]
*321 la_data_out[2]
*322 la_data_out[30]
*323 la_data_out[31]
*324 la_data_out[32]
*325 la_data_out[33]
*326 la_data_out[34]
*327 la_data_out[35]
*328 la_data_out[36]
*329 la_data_out[37]
*330 la_data_out[38]
*331 la_data_out[39]
*332 la_data_out[3]
*333 la_data_out[40]
*334 la_data_out[41]
*335 la_data_out[42]
*336 la_data_out[43]
*337 la_data_out[44]
*338 la_data_out[45]
*339 la_data_out[46]
*340 la_data_out[47]
*341 la_data_out[48]
*342 la_data_out[49]
*343 la_data_out[4]
*344 la_data_out[50]
*345 la_data_out[51]
*346 la_data_out[52]
*347 la_data_out[53]
*348 la_data_out[54]
*349 la_data_out[55]
*350 la_data_out[56]
*351 la_data_out[57]
*352 la_data_out[58]
*353 la_data_out[59]
*354 la_data_out[5]
*355 la_data_out[60]
*356 la_data_out[61]
*357 la_data_out[62]
*358 la_data_out[63]
*359 la_data_out[64]
*360 la_data_out[65]
*361 la_data_out[66]
*362 la_data_out[67]
*363 la_data_out[68]
*364 la_data_out[69]
*365 la_data_out[6]
*366 la_data_out[70]
*367 la_data_out[71]
*368 la_data_out[72]
*369 la_data_out[73]
*370 la_data_out[74]
*371 la_data_out[75]
*372 la_data_out[76]
*373 la_data_out[77]
*374 la_data_out[78]
*375 la_data_out[79]
*376 la_data_out[7]
*377 la_data_out[80]
*378 la_data_out[81]
*379 la_data_out[82]
*380 la_data_out[83]
*381 la_data_out[84]
*382 la_data_out[85]
*383 la_data_out[86]
*384 la_data_out[87]
*385 la_data_out[88]
*386 la_data_out[89]
*387 la_data_out[8]
*388 la_data_out[90]
*389 la_data_out[91]
*390 la_data_out[92]
*391 la_data_out[93]
*392 la_data_out[94]
*393 la_data_out[95]
*394 la_data_out[96]
*395 la_data_out[97]
*396 la_data_out[98]
*397 la_data_out[99]
*398 la_data_out[9]
*399 la_oenb[0]
*400 la_oenb[100]
*401 la_oenb[101]
*402 la_oenb[102]
*403 la_oenb[103]
*404 la_oenb[104]
*405 la_oenb[105]
*406 la_oenb[106]
*407 la_oenb[107]
*408 la_oenb[108]
*409 la_oenb[109]
*410 la_oenb[10]
*411 la_oenb[110]
*412 la_oenb[111]
*413 la_oenb[112]
*414 la_oenb[113]
*415 la_oenb[114]
*416 la_oenb[115]
*417 la_oenb[116]
*418 la_oenb[117]
*419 la_oenb[118]
*420 la_oenb[119]
*421 la_oenb[11]
*422 la_oenb[120]
*423 la_oenb[121]
*424 la_oenb[122]
*425 la_oenb[123]
*426 la_oenb[124]
*427 la_oenb[125]
*428 la_oenb[126]
*429 la_oenb[127]
*430 la_oenb[12]
*431 la_oenb[13]
*432 la_oenb[14]
*433 la_oenb[15]
*434 la_oenb[16]
*435 la_oenb[17]
*436 la_oenb[18]
*437 la_oenb[19]
*438 la_oenb[1]
*439 la_oenb[20]
*440 la_oenb[21]
*441 la_oenb[22]
*442 la_oenb[23]
*443 la_oenb[24]
*444 la_oenb[25]
*445 la_oenb[26]
*446 la_oenb[27]
*447 la_oenb[28]
*448 la_oenb[29]
*449 la_oenb[2]
*450 la_oenb[30]
*451 la_oenb[31]
*452 la_oenb[32]
*453 la_oenb[33]
*454 la_oenb[34]
*455 la_oenb[35]
*456 la_oenb[36]
*457 la_oenb[37]
*458 la_oenb[38]
*459 la_oenb[39]
*460 la_oenb[3]
*461 la_oenb[40]
*462 la_oenb[41]
*463 la_oenb[42]
*464 la_oenb[43]
*465 la_oenb[44]
*466 la_oenb[45]
*467 la_oenb[46]
*468 la_oenb[47]
*469 la_oenb[48]
*470 la_oenb[49]
*471 la_oenb[4]
*472 la_oenb[50]
*473 la_oenb[51]
*474 la_oenb[52]
*475 la_oenb[53]
*476 la_oenb[54]
*477 la_oenb[55]
*478 la_oenb[56]
*479 la_oenb[57]
*480 la_oenb[58]
*481 la_oenb[59]
*482 la_oenb[5]
*483 la_oenb[60]
*484 la_oenb[61]
*485 la_oenb[62]
*486 la_oenb[63]
*487 la_oenb[64]
*488 la_oenb[65]
*489 la_oenb[66]
*490 la_oenb[67]
*491 la_oenb[68]
*492 la_oenb[69]
*493 la_oenb[6]
*494 la_oenb[70]
*495 la_oenb[71]
*496 la_oenb[72]
*497 la_oenb[73]
*498 la_oenb[74]
*499 la_oenb[75]
*500 la_oenb[76]
*501 la_oenb[77]
*502 la_oenb[78]
*503 la_oenb[79]
*504 la_oenb[7]
*505 la_oenb[80]
*506 la_oenb[81]
*507 la_oenb[82]
*508 la_oenb[83]
*509 la_oenb[84]
*510 la_oenb[85]
*511 la_oenb[86]
*512 la_oenb[87]
*513 la_oenb[88]
*514 la_oenb[89]
*515 la_oenb[8]
*516 la_oenb[90]
*517 la_oenb[91]
*518 la_oenb[92]
*519 la_oenb[93]
*520 la_oenb[94]
*521 la_oenb[95]
*522 la_oenb[96]
*523 la_oenb[97]
*524 la_oenb[98]
*525 la_oenb[99]
*526 la_oenb[9]
*527 user_clock2
*528 user_irq[0]
*529 user_irq[1]
*530 user_irq[2]
*539 wb_clk_i
*540 wb_rst_i
*541 wbs_ack_o
*542 wbs_adr_i[0]
*543 wbs_adr_i[10]
*544 wbs_adr_i[11]
*545 wbs_adr_i[12]
*546 wbs_adr_i[13]
*547 wbs_adr_i[14]
*548 wbs_adr_i[15]
*549 wbs_adr_i[16]
*550 wbs_adr_i[17]
*551 wbs_adr_i[18]
*552 wbs_adr_i[19]
*553 wbs_adr_i[1]
*554 wbs_adr_i[20]
*555 wbs_adr_i[21]
*556 wbs_adr_i[22]
*557 wbs_adr_i[23]
*558 wbs_adr_i[24]
*559 wbs_adr_i[25]
*560 wbs_adr_i[26]
*561 wbs_adr_i[27]
*562 wbs_adr_i[28]
*563 wbs_adr_i[29]
*564 wbs_adr_i[2]
*565 wbs_adr_i[30]
*566 wbs_adr_i[31]
*567 wbs_adr_i[3]
*568 wbs_adr_i[4]
*569 wbs_adr_i[5]
*570 wbs_adr_i[6]
*571 wbs_adr_i[7]
*572 wbs_adr_i[8]
*573 wbs_adr_i[9]
*574 wbs_cyc_i
*575 wbs_dat_i[0]
*576 wbs_dat_i[10]
*577 wbs_dat_i[11]
*578 wbs_dat_i[12]
*579 wbs_dat_i[13]
*580 wbs_dat_i[14]
*581 wbs_dat_i[15]
*582 wbs_dat_i[16]
*583 wbs_dat_i[17]
*584 wbs_dat_i[18]
*585 wbs_dat_i[19]
*586 wbs_dat_i[1]
*587 wbs_dat_i[20]
*588 wbs_dat_i[21]
*589 wbs_dat_i[22]
*590 wbs_dat_i[23]
*591 wbs_dat_i[24]
*592 wbs_dat_i[25]
*593 wbs_dat_i[26]
*594 wbs_dat_i[27]
*595 wbs_dat_i[28]
*596 wbs_dat_i[29]
*597 wbs_dat_i[2]
*598 wbs_dat_i[30]
*599 wbs_dat_i[31]
*600 wbs_dat_i[3]
*601 wbs_dat_i[4]
*602 wbs_dat_i[5]
*603 wbs_dat_i[6]
*604 wbs_dat_i[7]
*605 wbs_dat_i[8]
*606 wbs_dat_i[9]
*607 wbs_dat_o[0]
*608 wbs_dat_o[10]
*609 wbs_dat_o[11]
*610 wbs_dat_o[12]
*611 wbs_dat_o[13]
*612 wbs_dat_o[14]
*613 wbs_dat_o[15]
*614 wbs_dat_o[16]
*615 wbs_dat_o[17]
*616 wbs_dat_o[18]
*617 wbs_dat_o[19]
*618 wbs_dat_o[1]
*619 wbs_dat_o[20]
*620 wbs_dat_o[21]
*621 wbs_dat_o[22]
*622 wbs_dat_o[23]
*623 wbs_dat_o[24]
*624 wbs_dat_o[25]
*625 wbs_dat_o[26]
*626 wbs_dat_o[27]
*627 wbs_dat_o[28]
*628 wbs_dat_o[29]
*629 wbs_dat_o[2]
*630 wbs_dat_o[30]
*631 wbs_dat_o[31]
*632 wbs_dat_o[3]
*633 wbs_dat_o[4]
*634 wbs_dat_o[5]
*635 wbs_dat_o[6]
*636 wbs_dat_o[7]
*637 wbs_dat_o[8]
*638 wbs_dat_o[9]
*639 wbs_sel_i[0]
*640 wbs_sel_i[1]
*641 wbs_sel_i[2]
*642 wbs_sel_i[3]
*643 wbs_stb_i
*644 wbs_we_i
*645 mprj

*PORTS
analog_io[0] I
analog_io[10] I
analog_io[11] I
analog_io[12] I
analog_io[13] I
analog_io[14] I
analog_io[15] I
analog_io[16] I
analog_io[17] I
analog_io[18] I
analog_io[19] I
analog_io[1] I
analog_io[20] I
analog_io[21] I
analog_io[22] I
analog_io[23] I
analog_io[24] I
analog_io[25] I
analog_io[26] I
analog_io[27] I
analog_io[2] I
analog_io[3] I
analog_io[4] I
analog_io[5] I
analog_io[6] I
analog_io[7] I
analog_io[8] I
analog_io[9] I
io_in[0] I
io_in[10] I
io_in[11] I
io_in[12] I
io_in[13] I
io_in[14] I
io_in[15] I
io_in[16] I
io_in[17] I
io_in[18] I
io_in[19] I
io_in[1] I
io_in[20] I
io_in[21] I
io_in[22] I
io_in[23] I
io_in[24] I
io_in[25] I
io_in[26] I
io_in[27] I
io_in[28] I
io_in[29] I
io_in[2] I
io_in[30] I
io_in[31] I
io_in[32] I
io_in[33] I
io_in[34] I
io_in[35] I
io_in[36] I
io_in[37] I
io_in[3] I
io_in[4] I
io_in[5] I
io_in[6] I
io_in[7] I
io_in[8] I
io_in[9] I
io_oeb[0] O
io_oeb[10] O
io_oeb[11] O
io_oeb[12] O
io_oeb[13] O
io_oeb[14] O
io_oeb[15] O
io_oeb[16] O
io_oeb[17] O
io_oeb[18] O
io_oeb[19] O
io_oeb[1] O
io_oeb[20] O
io_oeb[21] O
io_oeb[22] O
io_oeb[23] O
io_oeb[24] O
io_oeb[25] O
io_oeb[26] O
io_oeb[27] O
io_oeb[28] O
io_oeb[29] O
io_oeb[2] O
io_oeb[30] O
io_oeb[31] O
io_oeb[32] O
io_oeb[33] O
io_oeb[34] O
io_oeb[35] O
io_oeb[36] O
io_oeb[37] O
io_oeb[3] O
io_oeb[4] O
io_oeb[5] O
io_oeb[6] O
io_oeb[7] O
io_oeb[8] O
io_oeb[9] O
io_out[0] O
io_out[10] O
io_out[11] O
io_out[12] O
io_out[13] O
io_out[14] O
io_out[15] O
io_out[16] O
io_out[17] O
io_out[18] O
io_out[19] O
io_out[1] O
io_out[20] O
io_out[21] O
io_out[22] O
io_out[23] O
io_out[24] O
io_out[25] O
io_out[26] O
io_out[27] O
io_out[28] O
io_out[29] O
io_out[2] O
io_out[30] O
io_out[31] O
io_out[32] O
io_out[33] O
io_out[34] O
io_out[35] O
io_out[36] O
io_out[37] O
io_out[3] O
io_out[4] O
io_out[5] O
io_out[6] O
io_out[7] O
io_out[8] O
io_out[9] O
la_data_in[0] I
la_data_in[100] I
la_data_in[101] I
la_data_in[102] I
la_data_in[103] I
la_data_in[104] I
la_data_in[105] I
la_data_in[106] I
la_data_in[107] I
la_data_in[108] I
la_data_in[109] I
la_data_in[10] I
la_data_in[110] I
la_data_in[111] I
la_data_in[112] I
la_data_in[113] I
la_data_in[114] I
la_data_in[115] I
la_data_in[116] I
la_data_in[117] I
la_data_in[118] I
la_data_in[119] I
la_data_in[11] I
la_data_in[120] I
la_data_in[121] I
la_data_in[122] I
la_data_in[123] I
la_data_in[124] I
la_data_in[125] I
la_data_in[126] I
la_data_in[127] I
la_data_in[12] I
la_data_in[13] I
la_data_in[14] I
la_data_in[15] I
la_data_in[16] I
la_data_in[17] I
la_data_in[18] I
la_data_in[19] I
la_data_in[1] I
la_data_in[20] I
la_data_in[21] I
la_data_in[22] I
la_data_in[23] I
la_data_in[24] I
la_data_in[25] I
la_data_in[26] I
la_data_in[27] I
la_data_in[28] I
la_data_in[29] I
la_data_in[2] I
la_data_in[30] I
la_data_in[31] I
la_data_in[32] I
la_data_in[33] I
la_data_in[34] I
la_data_in[35] I
la_data_in[36] I
la_data_in[37] I
la_data_in[38] I
la_data_in[39] I
la_data_in[3] I
la_data_in[40] I
la_data_in[41] I
la_data_in[42] I
la_data_in[43] I
la_data_in[44] I
la_data_in[45] I
la_data_in[46] I
la_data_in[47] I
la_data_in[48] I
la_data_in[49] I
la_data_in[4] I
la_data_in[50] I
la_data_in[51] I
la_data_in[52] I
la_data_in[53] I
la_data_in[54] I
la_data_in[55] I
la_data_in[56] I
la_data_in[57] I
la_data_in[58] I
la_data_in[59] I
la_data_in[5] I
la_data_in[60] I
la_data_in[61] I
la_data_in[62] I
la_data_in[63] I
la_data_in[64] I
la_data_in[65] I
la_data_in[66] I
la_data_in[67] I
la_data_in[68] I
la_data_in[69] I
la_data_in[6] I
la_data_in[70] I
la_data_in[71] I
la_data_in[72] I
la_data_in[73] I
la_data_in[74] I
la_data_in[75] I
la_data_in[76] I
la_data_in[77] I
la_data_in[78] I
la_data_in[79] I
la_data_in[7] I
la_data_in[80] I
la_data_in[81] I
la_data_in[82] I
la_data_in[83] I
la_data_in[84] I
la_data_in[85] I
la_data_in[86] I
la_data_in[87] I
la_data_in[88] I
la_data_in[89] I
la_data_in[8] I
la_data_in[90] I
la_data_in[91] I
la_data_in[92] I
la_data_in[93] I
la_data_in[94] I
la_data_in[95] I
la_data_in[96] I
la_data_in[97] I
la_data_in[98] I
la_data_in[99] I
la_data_in[9] I
la_data_out[0] O
la_data_out[100] O
la_data_out[101] O
la_data_out[102] O
la_data_out[103] O
la_data_out[104] O
la_data_out[105] O
la_data_out[106] O
la_data_out[107] O
la_data_out[108] O
la_data_out[109] O
la_data_out[10] O
la_data_out[110] O
la_data_out[111] O
la_data_out[112] O
la_data_out[113] O
la_data_out[114] O
la_data_out[115] O
la_data_out[116] O
la_data_out[117] O
la_data_out[118] O
la_data_out[119] O
la_data_out[11] O
la_data_out[120] O
la_data_out[121] O
la_data_out[122] O
la_data_out[123] O
la_data_out[124] O
la_data_out[125] O
la_data_out[126] O
la_data_out[127] O
la_data_out[12] O
la_data_out[13] O
la_data_out[14] O
la_data_out[15] O
la_data_out[16] O
la_data_out[17] O
la_data_out[18] O
la_data_out[19] O
la_data_out[1] O
la_data_out[20] O
la_data_out[21] O
la_data_out[22] O
la_data_out[23] O
la_data_out[24] O
la_data_out[25] O
la_data_out[26] O
la_data_out[27] O
la_data_out[28] O
la_data_out[29] O
la_data_out[2] O
la_data_out[30] O
la_data_out[31] O
la_data_out[32] O
la_data_out[33] O
la_data_out[34] O
la_data_out[35] O
la_data_out[36] O
la_data_out[37] O
la_data_out[38] O
la_data_out[39] O
la_data_out[3] O
la_data_out[40] O
la_data_out[41] O
la_data_out[42] O
la_data_out[43] O
la_data_out[44] O
la_data_out[45] O
la_data_out[46] O
la_data_out[47] O
la_data_out[48] O
la_data_out[49] O
la_data_out[4] O
la_data_out[50] O
la_data_out[51] O
la_data_out[52] O
la_data_out[53] O
la_data_out[54] O
la_data_out[55] O
la_data_out[56] O
la_data_out[57] O
la_data_out[58] O
la_data_out[59] O
la_data_out[5] O
la_data_out[60] O
la_data_out[61] O
la_data_out[62] O
la_data_out[63] O
la_data_out[64] O
la_data_out[65] O
la_data_out[66] O
la_data_out[67] O
la_data_out[68] O
la_data_out[69] O
la_data_out[6] O
la_data_out[70] O
la_data_out[71] O
la_data_out[72] O
la_data_out[73] O
la_data_out[74] O
la_data_out[75] O
la_data_out[76] O
la_data_out[77] O
la_data_out[78] O
la_data_out[79] O
la_data_out[7] O
la_data_out[80] O
la_data_out[81] O
la_data_out[82] O
la_data_out[83] O
la_data_out[84] O
la_data_out[85] O
la_data_out[86] O
la_data_out[87] O
la_data_out[88] O
la_data_out[89] O
la_data_out[8] O
la_data_out[90] O
la_data_out[91] O
la_data_out[92] O
la_data_out[93] O
la_data_out[94] O
la_data_out[95] O
la_data_out[96] O
la_data_out[97] O
la_data_out[98] O
la_data_out[99] O
la_data_out[9] O
la_oenb[0] I
la_oenb[100] I
la_oenb[101] I
la_oenb[102] I
la_oenb[103] I
la_oenb[104] I
la_oenb[105] I
la_oenb[106] I
la_oenb[107] I
la_oenb[108] I
la_oenb[109] I
la_oenb[10] I
la_oenb[110] I
la_oenb[111] I
la_oenb[112] I
la_oenb[113] I
la_oenb[114] I
la_oenb[115] I
la_oenb[116] I
la_oenb[117] I
la_oenb[118] I
la_oenb[119] I
la_oenb[11] I
la_oenb[120] I
la_oenb[121] I
la_oenb[122] I
la_oenb[123] I
la_oenb[124] I
la_oenb[125] I
la_oenb[126] I
la_oenb[127] I
la_oenb[12] I
la_oenb[13] I
la_oenb[14] I
la_oenb[15] I
la_oenb[16] I
la_oenb[17] I
la_oenb[18] I
la_oenb[19] I
la_oenb[1] I
la_oenb[20] I
la_oenb[21] I
la_oenb[22] I
la_oenb[23] I
la_oenb[24] I
la_oenb[25] I
la_oenb[26] I
la_oenb[27] I
la_oenb[28] I
la_oenb[29] I
la_oenb[2] I
la_oenb[30] I
la_oenb[31] I
la_oenb[32] I
la_oenb[33] I
la_oenb[34] I
la_oenb[35] I
la_oenb[36] I
la_oenb[37] I
la_oenb[38] I
la_oenb[39] I
la_oenb[3] I
la_oenb[40] I
la_oenb[41] I
la_oenb[42] I
la_oenb[43] I
la_oenb[44] I
la_oenb[45] I
la_oenb[46] I
la_oenb[47] I
la_oenb[48] I
la_oenb[49] I
la_oenb[4] I
la_oenb[50] I
la_oenb[51] I
la_oenb[52] I
la_oenb[53] I
la_oenb[54] I
la_oenb[55] I
la_oenb[56] I
la_oenb[57] I
la_oenb[58] I
la_oenb[59] I
la_oenb[5] I
la_oenb[60] I
la_oenb[61] I
la_oenb[62] I
la_oenb[63] I
la_oenb[64] I
la_oenb[65] I
la_oenb[66] I
la_oenb[67] I
la_oenb[68] I
la_oenb[69] I
la_oenb[6] I
la_oenb[70] I
la_oenb[71] I
la_oenb[72] I
la_oenb[73] I
la_oenb[74] I
la_oenb[75] I
la_oenb[76] I
la_oenb[77] I
la_oenb[78] I
la_oenb[79] I
la_oenb[7] I
la_oenb[80] I
la_oenb[81] I
la_oenb[82] I
la_oenb[83] I
la_oenb[84] I
la_oenb[85] I
la_oenb[86] I
la_oenb[87] I
la_oenb[88] I
la_oenb[89] I
la_oenb[8] I
la_oenb[90] I
la_oenb[91] I
la_oenb[92] I
la_oenb[93] I
la_oenb[94] I
la_oenb[95] I
la_oenb[96] I
la_oenb[97] I
la_oenb[98] I
la_oenb[99] I
la_oenb[9] I
user_clock2 I
user_irq[0] O
user_irq[1] O
user_irq[2] O
wb_clk_i I
wb_rst_i I
wbs_ack_o O
wbs_adr_i[0] I
wbs_adr_i[10] I
wbs_adr_i[11] I
wbs_adr_i[12] I
wbs_adr_i[13] I
wbs_adr_i[14] I
wbs_adr_i[15] I
wbs_adr_i[16] I
wbs_adr_i[17] I
wbs_adr_i[18] I
wbs_adr_i[19] I
wbs_adr_i[1] I
wbs_adr_i[20] I
wbs_adr_i[21] I
wbs_adr_i[22] I
wbs_adr_i[23] I
wbs_adr_i[24] I
wbs_adr_i[25] I
wbs_adr_i[26] I
wbs_adr_i[27] I
wbs_adr_i[28] I
wbs_adr_i[29] I
wbs_adr_i[2] I
wbs_adr_i[30] I
wbs_adr_i[31] I
wbs_adr_i[3] I
wbs_adr_i[4] I
wbs_adr_i[5] I
wbs_adr_i[6] I
wbs_adr_i[7] I
wbs_adr_i[8] I
wbs_adr_i[9] I
wbs_cyc_i I
wbs_dat_i[0] I
wbs_dat_i[10] I
wbs_dat_i[11] I
wbs_dat_i[12] I
wbs_dat_i[13] I
wbs_dat_i[14] I
wbs_dat_i[15] I
wbs_dat_i[16] I
wbs_dat_i[17] I
wbs_dat_i[18] I
wbs_dat_i[19] I
wbs_dat_i[1] I
wbs_dat_i[20] I
wbs_dat_i[21] I
wbs_dat_i[22] I
wbs_dat_i[23] I
wbs_dat_i[24] I
wbs_dat_i[25] I
wbs_dat_i[26] I
wbs_dat_i[27] I
wbs_dat_i[28] I
wbs_dat_i[29] I
wbs_dat_i[2] I
wbs_dat_i[30] I
wbs_dat_i[31] I
wbs_dat_i[3] I
wbs_dat_i[4] I
wbs_dat_i[5] I
wbs_dat_i[6] I
wbs_dat_i[7] I
wbs_dat_i[8] I
wbs_dat_i[9] I
wbs_dat_o[0] O
wbs_dat_o[10] O
wbs_dat_o[11] O
wbs_dat_o[12] O
wbs_dat_o[13] O
wbs_dat_o[14] O
wbs_dat_o[15] O
wbs_dat_o[16] O
wbs_dat_o[17] O
wbs_dat_o[18] O
wbs_dat_o[19] O
wbs_dat_o[1] O
wbs_dat_o[20] O
wbs_dat_o[21] O
wbs_dat_o[22] O
wbs_dat_o[23] O
wbs_dat_o[24] O
wbs_dat_o[25] O
wbs_dat_o[26] O
wbs_dat_o[27] O
wbs_dat_o[28] O
wbs_dat_o[29] O
wbs_dat_o[2] O
wbs_dat_o[30] O
wbs_dat_o[31] O
wbs_dat_o[3] O
wbs_dat_o[4] O
wbs_dat_o[5] O
wbs_dat_o[6] O
wbs_dat_o[7] O
wbs_dat_o[8] O
wbs_dat_o[9] O
wbs_sel_i[0] I
wbs_sel_i[1] I
wbs_sel_i[2] I
wbs_sel_i[3] I
wbs_stb_i I
wbs_we_i I

*D_NET *29 0.352013
*CONN
*P io_in[0] I
*I *645:io_in[0] I *D user_proj_example
*CAP
1 io_in[0] 0.00101296
2 *645:io_in[0] 0.000257822
3 *29:14 0.0979517
4 *29:13 0.0976939
5 *29:11 0.0770417
6 *29:10 0.0780547
7 *29:14 *56:14 0
8 *29:14 *128:13 0
*RES
1 io_in[0] *29:10 11.7514 
2 *29:10 *29:11 1536.61 
3 *29:11 *29:13 4.5 
4 *29:13 *29:14 2011.13 
5 *29:14 *645:io_in[0] 2.73214 
*END

*D_NET *30 0.178958
*CONN
*P io_in[10] I
*I *645:io_in[10] I *D user_proj_example
*CAP
1 io_in[10] 0.00121717
2 *645:io_in[10] 0.000127052
3 *30:11 0.0580031
4 *30:10 0.0590932
5 *645:io_in[10] *142:18 7.17133e-06
6 *30:10 *40:8 0.000480978
7 *30:11 *142:18 0
8 *30:11 *142:20 0.0600291
*RES
1 io_in[10] *30:10 16.6086 
2 *30:10 *30:11 1324.47 
3 *30:11 *645:io_in[10] 7.05357 
*END

*D_NET *31 0.158133
*CONN
*P io_in[11] I
*I *645:io_in[11] I *D user_proj_example
*CAP
1 io_in[11] 0.00110833
2 *645:io_in[11] 0.000121319
3 *31:18 0.00514106
4 *31:16 0.00518662
5 *31:14 0.0067891
6 *31:13 0.00662222
7 *31:11 0.0660278
8 *31:10 0.0671361
9 *31:18 *69:11 0
*RES
1 io_in[11] *31:10 13.5729 
2 *31:10 *31:11 1308.66 
3 *31:11 *31:13 4.5 
4 *31:13 *31:14 135.866 
5 *31:14 *31:16 3.41071 
6 *31:16 *31:18 99.5 
7 *31:18 *645:io_in[11] 1.91071 
*END

*D_NET *32 0.183319
*CONN
*P io_in[12] I
*I *645:io_in[12] I *D user_proj_example
*CAP
1 io_in[12] 0.00127712
2 *645:io_in[12] 9.41702e-05
3 *32:14 0.0231094
4 *32:13 0.0230152
5 *32:11 0.0672728
6 *32:10 0.0685499
*RES
1 io_in[12] *32:10 16.5933 
2 *32:10 *32:11 1282.38 
3 *32:11 *32:13 4.5 
4 *32:13 *32:14 469.295 
5 *32:14 *645:io_in[12] 1.5 
*END

*D_NET *33 0.204993
*CONN
*P io_in[13] I
*I *645:io_in[13] I *D user_proj_example
*CAP
1 io_in[13] 0.00105759
2 *645:io_in[13] 0.000126398
3 *33:18 0.00530469
4 *33:16 0.00528522
5 *33:14 0.0297987
6 *33:13 0.0296918
7 *33:11 0.0663355
8 *33:10 0.0673931
*RES
1 io_in[13] *33:10 13.5729 
2 *33:10 *33:11 1265.54 
3 *33:11 *33:13 4.5 
4 *33:13 *33:14 610.045 
5 *33:14 *33:16 2.17857 
6 *33:16 *33:18 99.5 
7 *33:18 *645:io_in[13] 1.91071 
*END

*D_NET *34 0.239389
*CONN
*P io_in[14] I
*I *645:io_in[14] I *D user_proj_example
*CAP
1 io_in[14] 0.000929731
2 *645:io_in[14] 1.27254e-05
3 *34:14 0.0464481
4 *34:13 0.0464354
5 *34:11 0.0605184
6 *34:10 0.0614481
7 *34:11 *121:10 0.0235963
*RES
1 io_in[14] *34:10 11.1443 
2 *34:10 *34:11 1240.89 
3 *34:11 *34:13 4.5 
4 *34:13 *34:14 950.152 
5 *34:14 *645:io_in[14] 0.267857 
*END

*D_NET *35 0.232012
*CONN
*P io_in[15] I
*I *645:io_in[15] I *D user_proj_example
*CAP
1 io_in[15] 0.000423759
2 *645:io_in[15] 0.0010819
3 *35:12 0.0546304
4 *35:11 0.0535485
5 *35:9 0.0522496
6 *35:7 0.0526733
7 *35:12 *44:16 0.0174043
*RES
1 io_in[15] *35:7 8.72321 
2 *35:7 *35:9 1074.83 
3 *35:9 *35:11 4.5 
4 *35:11 *35:12 1123.43 
5 *35:12 *645:io_in[15] 22.6696 
*END

*D_NET *36 0.204006
*CONN
*P io_in[16] I
*I *645:io_in[16] I *D user_proj_example
*CAP
1 io_in[16] 0.00019121
2 *645:io_in[16] 0.00134437
3 *36:16 0.0407397
4 *36:15 0.0393953
5 *36:13 0.0522096
6 *36:11 0.0524008
7 *36:16 *45:17 0.0177246
*RES
1 io_in[16] *36:11 4.9375 
2 *36:11 *36:13 1074.01 
3 *36:13 *36:15 4.5 
4 *36:15 *36:16 813.75 
5 *36:16 *645:io_in[16] 27.9196 
*END

*D_NET *37 0.160918
*CONN
*P io_in[17] I
*I *645:io_in[17] I *D user_proj_example
*CAP
1 io_in[17] 0.000171114
2 *645:io_in[17] 0.00174084
3 *37:16 0.0283605
4 *37:15 0.0266196
5 *37:13 0.0519273
6 *37:11 0.0520984
7 *645:io_in[17] *112:9 0
*RES
1 io_in[17] *37:11 4.52679 
2 *37:11 *37:13 1068.24 
3 *37:13 *37:15 4.5 
4 *37:15 *37:16 505.304 
5 *37:16 *645:io_in[17] 34.5089 
*END

*D_NET *38 0.128571
*CONN
*P io_in[18] I
*I *645:io_in[18] I *D user_proj_example
*CAP
1 io_in[18] 0.00120911
2 *645:io_in[18] 0.00206723
3 *38:14 0.0122826
4 *38:13 0.0102154
5 *38:11 0.0507937
6 *38:10 0.0520028
7 *38:11 *86:7 0
8 *38:11 *86:11 0
*RES
1 io_in[18] *38:10 32.8036 
2 *38:10 *38:11 1044.71 
3 *38:11 *38:13 4.5 
4 *38:13 *38:14 191.929 
5 *38:14 *645:io_in[18] 40.9911 
*END

*D_NET *39 0.150711
*CONN
*P io_in[19] I
*I *645:io_in[19] I *D user_proj_example
*CAP
1 io_in[19] 0.000171114
2 *645:io_in[19] 1.84175e-05
3 *39:19 0.00541749
4 *39:18 0.00539907
5 *39:16 0.00617799
6 *39:15 0.00617799
7 *39:13 0.0363294
8 *39:11 0.0365005
9 *39:13 *109:11 0.0545189
*RES
1 io_in[19] *39:11 4.52679 
2 *39:11 *39:13 994.17 
3 *39:13 *39:15 4.5 
4 *39:15 *39:16 117.179 
5 *39:16 *39:18 4.5 
6 *39:18 *39:19 102.58 
7 *39:19 *645:io_in[19] 0.267857 
*END

*D_NET *40 0.570095
*CONN
*P io_in[1] I
*I *645:io_in[1] I *D user_proj_example
*CAP
1 io_in[1] 0.000933789
2 *645:io_in[1] 0.000114374
3 *40:11 0.0372576
4 *40:10 0.0371433
5 *40:8 0.0567103
6 *40:7 0.0576441
7 *40:8 io_oeb[1] 2.31886e-05
8 *40:8 io_oeb[3] 0.000193187
9 *40:8 io_out[1] 0.000391323
10 *40:8 io_out[2] 0.000441968
11 *40:8 io_out[3] 1.94879e-05
12 *40:8 io_out[4] 6.87181e-05
13 *40:8 io_out[5] 0.0001416
14 *40:8 io_out[8] 0.000218081
15 *40:8 io_out[9] 0
16 *40:8 *51:8 0.135535
17 *40:8 *61:10 0.000413306
18 *40:8 *62:10 0.00046545
19 *40:8 *63:10 1.94879e-05
20 *40:8 *66:10 0.000267869
21 *40:8 *105:17 0.00902168
22 *40:11 *50:11 0.0618048
23 *40:11 *51:11 0.157518
24 *40:11 *52:17 0.00125862
25 *40:11 *58:17 0.0110897
26 *40:11 *94:10 0.000106719
27 *40:11 *104:16 0
28 *40:11 *140:12 0.000812874
29 *30:10 *40:8 0.000480978
*RES
1 io_in[1] *40:7 5.99187 
2 *40:7 *40:8 1839.31 
3 *40:8 *40:10 4.5 
4 *40:10 *40:11 1512.79 
5 *40:11 *645:io_in[1] 6.66964 
*END

*D_NET *41 0.153973
*CONN
*P io_in[20] I
*I *645:io_in[20] I *D user_proj_example
*CAP
1 io_in[20] 0.000151018
2 *645:io_in[20] 0.000159737
3 *41:23 0.005346
4 *41:21 0.00523374
5 *41:19 0.0433209
6 *41:18 0.0432734
7 *41:16 0.0213891
8 *41:15 0.0213891
9 *41:13 0.00673296
10 *41:11 0.00688398
11 *41:23 *126:15 9.32286e-05
*RES
1 io_in[20] *41:11 4.11607 
2 *41:11 *41:13 137.795 
3 *41:13 *41:15 4.5 
4 *41:15 *41:16 425.214 
5 *41:16 *41:18 4.5 
6 *41:18 *41:19 859.58 
7 *41:19 *41:21 0.946429 
8 *41:21 *41:23 99.5 
9 *41:23 *645:io_in[20] 1.91071 
*END

*D_NET *42 0.233581
*CONN
*P io_in[21] I
*I *645:io_in[21] I *D user_proj_example
*CAP
1 io_in[21] 0.000383567
2 *645:io_in[21] 0.000156842
3 *42:19 0.00521607
4 *42:17 0.00522611
5 *42:15 0.00544372
6 *42:14 0.00527684
7 *42:12 0.0237638
8 *42:11 0.0237638
9 *42:9 0.0429697
10 *42:7 0.0433533
11 *42:12 *46:17 0.078027
12 *42:15 *117:7 0
*RES
1 io_in[21] *42:7 7.90179 
2 *42:7 *42:9 883.884 
3 *42:9 *42:11 4.5 
4 *42:11 *42:12 733.25 
5 *42:12 *42:14 4.5 
6 *42:14 *42:15 108.241 
7 *42:15 *42:17 3.41071 
8 *42:17 *42:19 99.5 
9 *42:19 *645:io_in[21] 1.91071 
*END

*D_NET *43 0.217382
*CONN
*P io_in[22] I
*I *645:io_in[22] I *D user_proj_example
*CAP
1 io_in[22] 0.000151018
2 *645:io_in[22] 0.000122058
3 *43:19 0.0392001
4 *43:18 0.0390781
5 *43:16 0.0548262
6 *43:15 0.0548262
7 *43:13 0.0145136
8 *43:11 0.0146647
*RES
1 io_in[22] *43:11 4.11607 
2 *43:11 *43:13 298.08 
3 *43:13 *43:15 4.5 
4 *43:15 *43:16 1047.45 
5 *43:16 *43:18 4.5 
6 *43:18 *43:19 798.67 
7 *43:19 *645:io_in[22] 1.5 
*END

*D_NET *44 0.255492
*CONN
*P io_in[23] I
*I *645:io_in[23] I *D user_proj_example
*CAP
1 io_in[23] 0.000130922
2 *645:io_in[23] 0.00109112
3 *44:16 0.0664066
4 *44:15 0.0653155
5 *44:13 0.0525062
6 *44:11 0.0526371
7 *44:13 *46:14 0
8 *35:12 *44:16 0.0174043
*RES
1 io_in[23] *44:11 3.70536 
2 *44:11 *44:13 1080.38 
3 *44:13 *44:15 4.5 
4 *44:15 *44:16 1357.95 
5 *44:16 *645:io_in[23] 22.3661 
*END

*D_NET *45 0.273299
*CONN
*P io_in[24] I
*I *645:io_in[24] I *D user_proj_example
*CAP
1 io_in[24] 0.00277049
2 *645:io_in[24] 0.00129347
3 *45:17 0.0772465
4 *45:16 0.075953
5 *45:14 0.0477701
6 *45:13 0.0477701
7 *45:11 0.00277049
8 *645:io_in[24] *57:24 0
9 *36:16 *45:17 0.0177246
*RES
1 io_in[24] *45:11 46.4823 
2 *45:11 *45:13 4.5 
3 *45:13 *45:14 983.089 
4 *45:14 *45:16 4.5 
5 *45:16 *45:17 1512.79 
6 *45:17 *645:io_in[24] 27.2054 
*END

*D_NET *46 0.290531
*CONN
*P io_in[25] I
*I *645:io_in[25] I *D user_proj_example
*CAP
1 io_in[25] 0.000895827
2 *645:io_in[25] 0.000156842
3 *46:24 0.00518904
4 *46:22 0.00507851
5 *46:20 0.00529982
6 *46:19 0.00525351
7 *46:17 0.0587796
8 *46:16 0.0587796
9 *46:14 0.027699
10 *46:13 0.027699